*Heading
** Job name: Job-1 Model name: Model-1
** Generated by: Abaqus/CAE 2020
*Preprint, echo=NO, model=NO, history=NO, contact=NO
** ----------------------------------------------------------------
** 
** PART INSTANCE: Part-1-1
** 
*Node
      1,  0.707106769,  0.707106769
      2,           5.,           5.
      3,          -5.,           5.
      4, -0.707106769,  0.707106769
      5,           1.,           0.
      6,  0.707106769, -0.707106769
      7,           5.,          -5.
      8,          -5.,          -5.
      9, -0.707106769, -0.707106769
     10,  0.777817488,  0.777817488
     11,  0.853698134,  0.853698134
     12,  0.935126722,  0.935126722
     13,   1.02250898,   1.02250898
     14,    1.1162802,    1.1162802
     15,   1.21690738,   1.21690738
     16,   1.32489181,   1.32489181
     17,   1.44077158,   1.44077158
     18,    1.5651238,    1.5651238
     19,   1.69856799,   1.69856799
     20,   1.84176886,   1.84176886
** ... 1105 like lines cut
*Element, type=CPS4
  1,   1,  10, 183,  75
  2,  10,  11, 184, 183
  3,  11,  12, 185, 184
  4,  12,  13, 186, 185
  5,  13,  14, 187, 186
  6,  14,  15, 188, 187
  7,  15,  16, 189, 188
  8,  16,  17, 190, 189
  9,  17,  18, 191, 190
 10,  18,  19, 192, 191
 11,  19,  20, 193, 192
 12,  20,  21, 194, 193
 13,  21,  22, 195, 194
 14,  22,  23, 196, 195
 15,  23,  24, 197, 196
 16,  24,  25, 198, 197
 17,  25,  26, 199, 198
 18,  26,  27, 200, 199
 19,  27,  28, 201, 200
 20,  28,  29, 202, 201
** ... 1060 like lines cut
*Nset, nset=Part-1-1_Set-1, generate
    1,  1125,     1
*Elset, elset=Part-1-1_Set-1, generate
    1,  1080,     1
*Nset, nset=Part-1-1_left
   3,   8, 153, 154, 155, 156, 157, 158, 159, 160, 161, 162
*Nset, nset=Part-1-1_left_bottom
 8,
*Elset, elset=_Part-1-1_right_S4, generate
 265,  529,   24
*Surface, type=ELEMENT, name=Part-1-1_right
_Part-1-1_right_S4, S4
** Section: Section-1
*Solid Section, elset=Part-1-1_Set-1, material=Material-1
1.,
*System
** 
** MATERIALS
** 
*Material, name=Material-1
*Elastic
207000., 0.312
** ----------------------------------------------------------------
** 
** STEP: Step-1
** 
*Step, name=Step-1, nlgeom=NO
*Static
1., 1., 1e-05, 1.
** 
** BOUNDARY CONDITIONS
** 
** Name: BC-1 Type: Symmetry/Antisymmetry/Encastre
*Boundary
Part-1-1_left, PINNED
** 
** LOADS
** 
** Name: Load-1   Type: Surface traction
*Dsload
Part-1-1_right, TRVEC, 100., 1., 0., 0.
