*Heading
** Job name: Job-1 Model name: Model-1
** Generated by: Abaqus/CAE 2020
*Preprint, echo=NO, model=NO, history=NO, contact=NO
** ----------------------------------------------------------------
** 
** PART INSTANCE: Part-1-1
** 
*Node
      1,           5.,           5.,         100.
      2,           5.,          2.5,         100.
      3,           5.,           0.,         100.
      4,           5.,         -2.5,         100.
      5,           5.,          -5.,         100.
      6,           5.,           5.,          95.
      7,           5.,          2.5,          95.
      8,           5.,           0.,          95.
      9,           5.,         -2.5,          95.
     10,           5.,          -5.,          95.
     11,           5.,           5.,          90.
     12,           5.,          2.5,          90.
     13,           5.,           0.,          90.
     14,           5.,         -2.5,          90.
     15,           5.,          -5.,          90.
     16,           5.,           5.,          85.
     17,           5.,          2.5,          85.
     18,           5.,           0.,          85.
     19,           5.,         -2.5,          85.
     20,           5.,          -5.,          85.
** ... 505 like lines cut
*Element, type=C3D8
  1, 106, 107, 112, 111,   1,   2,   7,   6
  2, 107, 108, 113, 112,   2,   3,   8,   7
  3, 108, 109, 114, 113,   3,   4,   9,   8
  4, 109, 110, 115, 114,   4,   5,  10,   9
  5, 111, 112, 117, 116,   6,   7,  12,  11
  6, 112, 113, 118, 117,   7,   8,  13,  12
  7, 113, 114, 119, 118,   8,   9,  14,  13
  8, 114, 115, 120, 119,   9,  10,  15,  14
  9, 116, 117, 122, 121,  11,  12,  17,  16
 10, 117, 118, 123, 122,  12,  13,  18,  17
 11, 118, 119, 124, 123,  13,  14,  19,  18
 12, 119, 120, 125, 124,  14,  15,  20,  19
 13, 121, 122, 127, 126,  16,  17,  22,  21
 14, 122, 123, 128, 127,  17,  18,  23,  22
 15, 123, 124, 129, 128,  18,  19,  24,  23
 16, 124, 125, 130, 129,  19,  20,  25,  24
 17, 126, 127, 132, 131,  21,  22,  27,  26
 18, 127, 128, 133, 132,  22,  23,  28,  27
 19, 128, 129, 134, 133,  23,  24,  29,  28
 20, 129, 130, 135, 134,  24,  25,  30,  29
** ... 300 like lines cut
*Nset, nset=Part-1-1_Set-2, generate
   1,  525,    1
*Elset, elset=Part-1-1_Set-2, generate
   1,  320,    1
** Section: Section-1
*Solid Section, elset=Part-1-1_Set-2, material=Material-1
,
*System
*Nset, nset=left
   1,   2,   3,   4,   5, 106, 107, 108, 109, 110, 211, 212, 213, 214, 215, 316
 317, 318, 319, 320, 421, 422, 423, 424, 425
*Nset, nset=right
 101, 102, 103, 104, 105, 206, 207, 208, 209, 210, 311, 312, 313, 314, 315, 416
 417, 418, 419, 420, 521, 522, 523, 524, 525
** 
** MATERIALS
** 
*Material, name=Material-1
*Elastic
210000., 0.3
** ----------------------------------------------------------------
** 
** STEP: Step-1
** 
*Step, name=Step-1, nlgeom=NO
*Static
1., 1., 1e-05, 1.
** 
** BOUNDARY CONDITIONS
** 
** Name: BC-1 Type: Symmetry/Antisymmetry/Encastre
*Boundary
left, PINNED
** 
** LOADS
** 
** Name: Load-1   Type: Concentrated force
*Cload
right, 2, -40.
** 
** OUTPUT REQUESTS
** 
*Restart, write, frequency=0
** 
** FIELD OUTPUT: F-Output-1
** 
*Output, field, variable=PRESELECT
** 
** HISTORY OUTPUT: H-Output-1
** 
*Output, history, variable=PRESELECT
*End Step
