*Heading
** Job name: Job-1 Model name: Model-1
** Generated by: Abaqus/CAE 2020
*Preprint, echo=NO, model=NO, history=NO, contact=NO
** ----------------------------------------------------------------
** 
** PART INSTANCE: Part-1-1
** 
*Node
      1,        -12.5,   21.6506348,           0.
      2,         -25.,           0.,           0.
      3,        -12.5,  -21.6506348,           0.
      4,           0.,         -50.,  -6.21600008
      5,         12.5,  -21.6506348,           0.
      6,           0.,           0.,    8.2159996
      7,         12.5,   21.6506348,           0.
      8,          25.,           0.,           0.
      9,  -43.3012695,         -25.,  -6.21600008
     10,           0.,          50.,  -6.21600008
     11,  -43.3012695,          25.,  -6.21600008
     12,   43.3012695,          25.,  -6.21600008
     13,   43.3012695,         -25.,  -6.21600008
*Element, type=T3D2
1, 1, 2
2, 2, 3
3, 4, 3
4, 5, 4
5, 6, 5
6, 6, 1
7, 7, 1
8, 8, 7
 9, 5, 8
10, 3, 5
11, 9, 2
12, 3, 9
13, 6, 3
14, 6, 2
15,  1, 10
16, 11,  1
17,  2, 11
18, 10,  7
19, 12,  8
20,  7, 12
** ... 4 like lines cut
*Nset, nset=Part-1-1_Wire-2-Set-1
 2, 6
*Elset, elset=Part-1-1_Wire-2-Set-1
 14,
*Nset, nset=Part-1-1_Wire-3-Set-1
 1, 3, 5, 6, 7, 8
*Elset, elset=Part-1-1_Wire-3-Set-1
  5,  6, 13, 23, 24
*Nset, nset=Part-1-1_Wire-4-Set-1
  1,  2,  3,  4,  5,  7,  8,  9, 10, 11, 12, 13
*Elset, elset=Part-1-1_Wire-4-Set-1
  3,  4, 11, 12, 15, 16, 17, 18, 19, 20, 21, 22
*Nset, nset=Part-1-1_Wire-5-Set-1
 1, 2, 3, 5, 7, 8
*Elset, elset=Part-1-1_Wire-5-Set-1
  1,  2,  7,  8,  9, 10
*Nset, nset=Part-1-1_Set-6, generate
  1,  13,   1
*Elset, elset=Part-1-1_Set-6, generate
  1,  24,   1
** Section: Section-1
*Solid Section, elset=Part-1-1_Set-6, material=Material-1
6.,
*System
*Nset, nset=fixed
  4,  9, 10, 11, 12, 13
*Nset, nset=top
 6,
** 
** MATERIALS
** 
*Material, name=Material-1
*Elastic
210000., 0.3
** ----------------------------------------------------------------
** 
** STEP: Step-1
** 
*Step, name=Step-1, nlgeom=NO
*Static
1., 1., 1e-05, 1.
** 
** BOUNDARY CONDITIONS
** 
** Name: BC-1 Type: Symmetry/Antisymmetry/Encastre
*Boundary
fixed, PINNED
** 
** LOADS
** 
** Name: Load-1   Type: Concentrated force
*Cload
top, 3, -100.
** 
** OUTPUT REQUESTS
** 
*Restart, write, frequency=0
** 
** FIELD OUTPUT: F-Output-1
** 
*Output, field
*Node Output
CF, RF, U
*Element Output, directions=YES
MISES, S
** 
** HISTORY OUTPUT: H-Output-1
** 
*Output, history, variable=PRESELECT
*End Step
